xflr5 v6.61

Plane Name
T1-10.0 m/s-Panel-Inviscid
QInf  =   10.000000 m/s
Alpha =    0.000000
Beta  =    0.000°
Phi   =    0.000°
Ctrl  =    0.000
CL    =    0.303826
Cy    =    0.000000
Cd    =    0.003289     ICd   =    0.003289     PCd   =    0.000000
Cl   = 1.38297e-15
Cm   =   -0.391857
ICn   =   -0.000000     PCn   =   -0.000000 
XCP   =    3.719557     YCP   =   -0.000000     ZCP   =    0.513884  
XNP   =    0.000000
Bending = 2500.172306

Main Wing
  y-span        Chord      Ai         Cl        PCd          ICd        CmGeom    CmAirf@chord/4    XTrtop    XTrBot      XCP       BM
  -11.8697     1.2747    -1.501    0.071338    0.000000    0.001870   -0.396939   -0.041882     0.0000    0.0000    0.7687    0.0000
  -11.7886     1.2934    -1.035    0.117316    0.000000    0.002119   -0.567168   -0.063533     0.0000    0.0000    0.7955    0.0188
  -11.6270     1.3308    -0.696    0.157360    0.000000    0.001913   -0.698170   -0.077700     0.0000    0.0000    0.7694    0.2437
  -11.3860     1.3866    -0.441    0.188834    0.000000    0.001452   -0.798947   -0.086910     0.0000    0.0000    0.7278    1.2191
  -11.0672     1.4603    -0.285    0.214103    0.000000    0.001063   -0.848969   -0.091548     0.0000    0.0000    0.6892    3.9803
  -10.6727     1.5515    -0.215    0.235563    0.000000    0.000886   -0.860140   -0.093566     0.0000    0.0000    0.6555   10.1649
  -10.2054     1.6596    -0.205    0.254451    0.000000    0.000911   -0.843931   -0.094363     0.0000    0.0000    0.6272   22.1253
   -9.6684     1.7838    -0.229    0.271105    0.000000    0.001085   -0.807978   -0.094627     0.0000    0.0000    0.6044   43.0387
   -9.0653     1.9233    -0.273    0.285486    0.000000    0.001360   -0.757878   -0.094648     0.0000    0.0000    0.5863   76.9887
   -8.4003     2.0771    -0.328    0.297477    0.000000    0.001703   -0.698291   -0.094546     0.0000    0.0000    0.5722   128.9965
   -7.6779     2.2442    -0.390    0.306976    0.000000    0.002090   -0.633143   -0.094374     0.0000    0.0000    0.5618   204.9807
   -6.9031     2.4234    -0.457    0.313919    0.000000    0.002502   -0.565688   -0.094156     0.0000    0.0000    0.5543   311.6326
   -6.0811     2.6135    -0.526    0.318263    0.000000    0.002923   -0.498479   -0.093901     0.0000    0.0000    0.5497   456.1997
   -5.2176     2.8132    -0.597    0.319959    0.000000    0.003338   -0.433427   -0.093615     0.0000    0.0000    0.5476   646.1734
   -4.3184     3.0212    -0.670    0.318943    0.000000    0.003729   -0.371917   -0.093312     0.0000    0.0000    0.5482   888.8876
   -3.3897     3.2360    -0.740    0.315080    0.000000    0.004073   -0.314920   -0.093019     0.0000    0.0000    0.5517   1191.0431
   -2.4379     3.4561    -0.804    0.308138    0.000000    0.004329   -0.263131   -0.092817     0.0000    0.0000    0.5589   1558.1712
   -1.4694     3.6801    -0.849    0.297729    0.000000    0.004418   -0.217174   -0.092944     0.0000    0.0000    0.5717   1994.0609
   -0.4909     3.9065    -0.840    0.283033    0.000000    0.004168   -0.178179   -0.093985     0.0000    0.0000    0.5937   2500.1723
    0.4909     3.9065    -0.840    0.283033    0.000000    0.004168   -0.178179   -0.093985     0.0000    0.0000    0.5937   2500.1723
    1.4694     3.6801    -0.849    0.297729    0.000000    0.004418   -0.217174   -0.092944     0.0000    0.0000    0.5717   1994.0609
    2.4379     3.4561    -0.804    0.308138    0.000000    0.004329   -0.263131   -0.092817     0.0000    0.0000    0.5589   1558.1712
    3.3897     3.2360    -0.740    0.315080    0.000000    0.004073   -0.314920   -0.093019     0.0000    0.0000    0.5517   1191.0431
    4.3184     3.0212    -0.670    0.318943    0.000000    0.003729   -0.371917   -0.093312     0.0000    0.0000    0.5482   888.8876
    5.2176     2.8132    -0.597    0.319959    0.000000    0.003338   -0.433427   -0.093615     0.0000    0.0000    0.5476   646.1734
    6.0811     2.6135    -0.526    0.318263    0.000000    0.002923   -0.498479   -0.093901     0.0000    0.0000    0.5497   456.1997
    6.9031     2.4234    -0.457    0.313919    0.000000    0.002502   -0.565688   -0.094156     0.0000    0.0000    0.5543   311.6326
    7.6779     2.2442    -0.390    0.306976    0.000000    0.002090   -0.633143   -0.094374     0.0000    0.0000    0.5618   204.9807
    8.4003     2.0771    -0.328    0.297477    0.000000    0.001703   -0.698291   -0.094546     0.0000    0.0000    0.5722   128.9965
    9.0653     1.9233    -0.273    0.285486    0.000000    0.001360   -0.757878   -0.094648     0.0000    0.0000    0.5863   76.9887
    9.6684     1.7838    -0.229    0.271105    0.000000    0.001085   -0.807978   -0.094627     0.0000    0.0000    0.6044   43.0387
   10.2054     1.6596    -0.205    0.254451    0.000000    0.000911   -0.843931   -0.094363     0.0000    0.0000    0.6272   22.1253
   10.6727     1.5515    -0.215    0.235563    0.000000    0.000886   -0.860140   -0.093566     0.0000    0.0000    0.6555   10.1649
   11.0672     1.4603    -0.285    0.214103    0.000000    0.001063   -0.848969   -0.091548     0.0000    0.0000    0.6892    3.9803
   11.3860     1.3866    -0.441    0.188834    0.000000    0.001452   -0.798947   -0.086910     0.0000    0.0000    0.7278    1.2191
   11.6270     1.3308    -0.696    0.157360    0.000000    0.001913   -0.698170   -0.077700     0.0000    0.0000    0.7694    0.2437
   11.7886     1.2934    -1.035    0.117316    0.000000    0.002119   -0.567168   -0.063533     0.0000    0.0000    0.7955    0.0188
   11.8697     1.2747    -1.501    0.071338    0.000000    0.001870   -0.396939   -0.041882     0.0000    0.0000    0.7687    0.0000


Main Wing Cp Coefficients
 Panel     CtrlPt.x        CtrlPt.y        CtrlPt.z       Nx      Ny       Nz        Area       Cp
Main WingCp Coefficients
Strip 1
  19       6.600e+00      -1.186e+01       5.871e-01           0.237           0.004          -0.971       3.633e-04          0.0893
  20       6.583e+00      -1.186e+01       5.853e-01           0.060          -0.036          -0.998       1.050e-03          0.0493
  21       6.549e+00      -1.186e+01       5.832e-01           0.061          -0.036          -0.997       1.718e-03          0.0494
  22       6.499e+00      -1.186e+01       5.800e-01           0.064          -0.034          -0.997       2.340e-03          0.0328
  23       6.435e+00      -1.186e+01       5.758e-01           0.068          -0.032          -0.997       2.898e-03          0.0232
  24       6.358e+00      -1.186e+01       5.703e-01           0.073          -0.030          -0.997       3.378e-03          0.0167
  25       6.270e+00      -1.186e+01       5.636e-01           0.079          -0.027          -0.996       3.767e-03          0.0105
  26       6.174e+00      -1.186e+01       5.556e-01           0.085          -0.024          -0.996       4.054e-03          0.0028
  27       6.073e+00      -1.186e+01       5.467e-01           0.090          -0.021          -0.996       4.230e-03         -0.0071
  28       5.968e+00      -1.186e+01       5.371e-01           0.092          -0.019          -0.996       4.290e-03         -0.0195
  29       5.864e+00      -1.186e+01       5.275e-01           0.091          -0.018          -0.996       4.231e-03         -0.0299
  30       5.762e+00      -1.186e+01       5.179e-01           0.098          -0.014          -0.995       4.060e-03         -0.0433
  31       5.666e+00      -1.186e+01       5.083e-01           0.101          -0.011          -0.995       3.777e-03         -0.0746
  32       5.579e+00      -1.186e+01       4.998e-01           0.091          -0.014          -0.996       3.386e-03         -0.1287
  33       5.502e+00      -1.186e+01       4.937e-01           0.063          -0.025          -0.998       2.899e-03         -0.2134
  34       5.437e+00      -1.186e+01       4.913e-01           0.005          -0.049          -0.999       2.336e-03         -0.3505
  35       5.387e+00      -1.186e+01       4.935e-01          -0.110          -0.098          -0.989       1.728e-03         -0.5796
  36       5.353e+00      -1.186e+01       5.009e-01          -0.363          -0.205          -0.909       1.143e-03         -0.8265
  37       5.336e+00      -1.186e+01       5.139e-01          -0.817          -0.386          -0.429       7.903e-04          0.0703
  38       5.336e+00      -1.186e+01       5.320e-01          -0.849          -0.365           0.381       9.677e-04          0.6242
  39       5.353e+00      -1.186e+01       5.535e-01          -0.634          -0.255           0.730       1.459e-03          0.2110
  40       5.387e+00      -1.186e+01       5.769e-01          -0.484          -0.183           0.856       2.024e-03         -0.0587
  41       5.437e+00      -1.185e+01       6.009e-01          -0.378          -0.134           0.916       2.567e-03         -0.1869
  42       5.502e+00      -1.185e+01       6.238e-01          -0.291          -0.095           0.952       3.051e-03         -0.2523
  43       5.579e+00      -1.185e+01       6.438e-01          -0.212          -0.061           0.975       3.463e-03         -0.2851
  44       5.666e+00      -1.185e+01       6.593e-01          -0.138          -0.030           0.990       3.796e-03         -0.2946
  45       5.762e+00      -1.185e+01       6.691e-01          -0.067          -0.002           0.998       4.045e-03         -0.2812
  46       5.864e+00      -1.185e+01       6.728e-01          -0.007           0.021           1.000       4.206e-03         -0.2459
  47       5.968e+00      -1.185e+01       6.714e-01           0.033           0.037           0.999       4.265e-03         -0.2075
  48       6.073e+00      -1.185e+01       6.662e-01           0.067           0.049           0.997       4.215e-03         -0.1771
  49       6.174e+00      -1.185e+01       6.578e-01           0.098           0.060           0.993       4.053e-03         -0.1479
  50       6.270e+00      -1.185e+01       6.472e-01           0.124           0.068           0.990       3.781e-03         -0.1193
  51       6.358e+00      -1.185e+01       6.352e-01           0.148           0.076           0.986       3.406e-03         -0.0902
  52       6.435e+00      -1.185e+01       6.229e-01           0.169           0.082           0.982       2.934e-03         -0.0605
  53       6.499e+00      -1.185e+01       6.113e-01           0.187           0.087           0.979       2.378e-03         -0.0291
  54       6.549e+00      -1.185e+01       6.015e-01           0.200           0.091           0.975       1.752e-03          0.0071
  55       6.583e+00      -1.185e+01       5.944e-01           0.210           0.093           0.973       1.073e-03          0.0161
  56       6.600e+00      -1.186e+01       5.899e-01           0.374           0.127           0.919       3.818e-04          0.1160
Strip 2
  57       6.583e+00      -1.177e+01       5.831e-01           0.236           0.003          -0.972       1.103e-03          0.1577
  58       6.565e+00      -1.177e+01       5.812e-01           0.059          -0.037          -0.998       3.189e-03          0.1201
  59       6.531e+00      -1.177e+01       5.792e-01           0.060          -0.036          -0.998       5.218e-03          0.1178
  60       6.480e+00      -1.177e+01       5.760e-01           0.063          -0.035          -0.997       7.107e-03          0.0912
  61       6.415e+00      -1.177e+01       5.718e-01           0.067          -0.033          -0.997       8.803e-03          0.0712
  62       6.337e+00      -1.178e+01       5.663e-01           0.072          -0.030          -0.997       1.026e-02          0.0562
  63       6.248e+00      -1.178e+01       5.596e-01           0.078          -0.027          -0.997       1.144e-02          0.0428
  64       6.150e+00      -1.178e+01       5.516e-01           0.084          -0.024          -0.996       1.231e-02          0.0283
  65       6.047e+00      -1.178e+01       5.427e-01           0.089          -0.021          -0.996       1.285e-02          0.0115
  66       5.941e+00      -1.178e+01       5.331e-01           0.091          -0.019          -0.996       1.303e-02         -0.0071
  67       5.835e+00      -1.178e+01       5.234e-01           0.090          -0.018          -0.996       1.285e-02         -0.0229
  68       5.732e+00      -1.178e+01       5.138e-01           0.097          -0.014          -0.995       1.233e-02         -0.0447
  69       5.635e+00      -1.178e+01       5.041e-01           0.100          -0.012          -0.995       1.147e-02         -0.0922
  70       5.546e+00      -1.178e+01       4.956e-01           0.090          -0.015          -0.996       1.028e-02         -0.1724
  71       5.468e+00      -1.178e+01       4.895e-01           0.062          -0.025          -0.998       8.804e-03         -0.2942
  72       5.402e+00      -1.178e+01       4.871e-01           0.004          -0.049          -0.999       7.095e-03         -0.4759
  73       5.352e+00      -1.178e+01       4.894e-01          -0.111          -0.098          -0.989       5.251e-03         -0.7470
  74       5.317e+00      -1.178e+01       4.970e-01          -0.364          -0.206          -0.909       3.473e-03         -1.0163
  75       5.300e+00      -1.178e+01       5.103e-01          -0.817          -0.386          -0.429       2.402e-03         -0.0354
  76       5.300e+00      -1.178e+01       5.286e-01          -0.849          -0.365           0.381       2.937e-03          0.7137
  77       5.317e+00      -1.178e+01       5.504e-01          -0.634          -0.254           0.730       4.428e-03          0.3427
  78       5.352e+00      -1.177e+01       5.741e-01          -0.484          -0.183           0.856       6.145e-03          0.0024
  79       5.402e+00      -1.177e+01       5.984e-01          -0.377          -0.134           0.916       7.791e-03         -0.1974
  80       5.468e+00      -1.177e+01       6.216e-01          -0.290          -0.095           0.952       9.262e-03         -0.3107
  81       5.546e+00      -1.177e+01       6.418e-01          -0.211          -0.061           0.976       1.051e-02         -0.3696
  82       5.635e+00      -1.177e+01       6.574e-01          -0.137          -0.030           0.990       1.153e-02         -0.3898
  83       5.732e+00      -1.177e+01       6.672e-01          -0.066          -0.001           0.998       1.229e-02         -0.3747
  84       5.835e+00      -1.177e+01       6.709e-01          -0.006           0.022           1.000       1.277e-02         -0.3278
  85       5.941e+00      -1.177e+01       6.694e-01           0.034           0.037           0.999       1.296e-02         -0.2759
  86       6.047e+00      -1.177e+01       6.639e-01           0.068           0.049           0.996       1.280e-02         -0.2348
  87       6.150e+00      -1.177e+01       6.553e-01           0.099           0.060           0.993       1.231e-02         -0.1964
  88       6.248e+00      -1.177e+01       6.444e-01           0.125           0.069           0.990       1.149e-02         -0.1589
  89       6.337e+00      -1.177e+01       6.321e-01           0.150           0.076           0.986       1.035e-02         -0.1196
  90       6.415e+00      -1.177e+01       6.195e-01           0.170           0.083           0.982       8.914e-03         -0.0760
  91       6.480e+00      -1.177e+01       6.077e-01           0.188           0.087           0.978       7.225e-03         -0.0247
  92       6.531e+00      -1.177e+01       5.978e-01           0.201           0.091           0.975       5.323e-03          0.0375
  93       6.565e+00      -1.177e+01       5.905e-01           0.211           0.094           0.973       3.260e-03          0.0756
  94       6.583e+00      -1.177e+01       5.859e-01           0.375           0.127           0.918       1.160e-03          0.1877
Strip 3
  95       6.547e+00      -1.161e+01       5.750e-01           0.234           0.003          -0.972       1.882e-03          0.1886
  96       6.529e+00      -1.161e+01       5.732e-01           0.057          -0.037          -0.998       5.443e-03          0.1528
  97       6.494e+00      -1.161e+01       5.711e-01           0.058          -0.036          -0.998       8.907e-03          0.1520
  98       6.442e+00      -1.161e+01       5.680e-01           0.061          -0.035          -0.998       1.213e-02          0.1242
  99       6.375e+00      -1.161e+01       5.638e-01           0.065          -0.033          -0.997       1.502e-02          0.1006
 100       6.294e+00      -1.161e+01       5.583e-01           0.070          -0.031          -0.997       1.751e-02          0.0818
 101       6.203e+00      -1.161e+01       5.516e-01           0.076          -0.028          -0.997       1.953e-02          0.0645
 102       6.102e+00      -1.161e+01       5.436e-01           0.082          -0.025          -0.996       2.101e-02          0.0460
 103       5.996e+00      -1.161e+01       5.346e-01           0.087          -0.022          -0.996       2.192e-02          0.0246
 104       5.887e+00      -1.162e+01       5.250e-01           0.089          -0.020          -0.996       2.223e-02          0.0005
 105       5.778e+00      -1.162e+01       5.153e-01           0.088          -0.019          -0.996       2.193e-02         -0.0227
 106       5.672e+00      -1.162e+01       5.056e-01           0.095          -0.015          -0.995       2.105e-02         -0.0551
 107       5.572e+00      -1.162e+01       4.959e-01           0.098          -0.013          -0.995       1.958e-02         -0.1164
 108       5.481e+00      -1.162e+01       4.873e-01           0.088          -0.016          -0.996       1.755e-02         -0.2111
 109       5.400e+00      -1.162e+01       4.812e-01           0.060          -0.026          -0.998       1.503e-02         -0.3423
 110       5.333e+00      -1.162e+01       4.789e-01           0.002          -0.050          -0.999       1.211e-02         -0.5244
 111       5.281e+00      -1.162e+01       4.814e-01          -0.113          -0.099          -0.989       8.968e-03         -0.7886
 112       5.245e+00      -1.162e+01       4.892e-01          -0.365          -0.206          -0.908       5.935e-03         -1.0531
 113       5.227e+00      -1.162e+01       5.029e-01          -0.816          -0.386          -0.429       4.105e-03         -0.0373
 114       5.227e+00      -1.162e+01       5.217e-01          -0.850          -0.365           0.381       5.009e-03          0.7925
 115       5.245e+00      -1.161e+01       5.441e-01          -0.633          -0.254           0.731       7.548e-03          0.4396
 116       5.281e+00      -1.161e+01       5.685e-01          -0.482          -0.182           0.857       1.048e-02          0.0736
 117       5.333e+00      -1.161e+01       5.934e-01          -0.376          -0.133           0.917       1.329e-02         -0.1694
 118       5.400e+00      -1.161e+01       6.171e-01          -0.288          -0.094           0.953       1.580e-02         -0.3313
 119       5.481e+00      -1.161e+01       6.377e-01          -0.209          -0.060           0.976       1.794e-02         -0.4299
 120       5.572e+00      -1.161e+01       6.536e-01          -0.135          -0.029           0.990       1.967e-02         -0.4737
 121       5.672e+00      -1.161e+01       6.635e-01          -0.064          -0.001           0.998       2.097e-02         -0.4662
 122       5.778e+00      -1.161e+01       6.670e-01          -0.004           0.023           1.000       2.181e-02         -0.4142
 123       5.887e+00      -1.161e+01       6.652e-01           0.036           0.038           0.999       2.212e-02         -0.3513
 124       5.996e+00      -1.161e+01       6.594e-01           0.070           0.050           0.996       2.186e-02         -0.2974
 125       6.102e+00      -1.161e+01       6.503e-01           0.101           0.061           0.993       2.102e-02         -0.2448
 126       6.203e+00      -1.161e+01       6.389e-01           0.127           0.069           0.989       1.962e-02         -0.1920
 127       6.294e+00      -1.161e+01       6.261e-01           0.152           0.077           0.985       1.767e-02         -0.1357
 128       6.375e+00      -1.161e+01       6.129e-01           0.172           0.083           0.982       1.522e-02         -0.0740
 129       6.442e+00      -1.161e+01       6.007e-01           0.190           0.088           0.978       1.234e-02         -0.0053
 130       6.494e+00      -1.161e+01       5.903e-01           0.203           0.092           0.975       9.092e-03          0.0704
 131       6.529e+00      -1.161e+01       5.828e-01           0.213           0.094           0.973       5.569e-03          0.1179
 132       6.547e+00      -1.161e+01       5.780e-01           0.377           0.128           0.917       1.982e-03          0.2297
Strip 4
 133       6.495e+00      -1.137e+01       5.631e-01           0.231           0.002          -0.973       2.725e-03          0.1963
 134       6.476e+00      -1.137e+01       5.612e-01           0.054          -0.038          -0.998       7.884e-03          0.1627
 135       6.439e+00      -1.137e+01       5.592e-01           0.055          -0.037          -0.998       1.290e-02          0.1642
 136       6.385e+00      -1.137e+01       5.561e-01           0.058          -0.036          -0.998       1.757e-02          0.1377
 137       6.315e+00      -1.137e+01       5.518e-01           0.062          -0.034          -0.997       2.176e-02          0.1143
 138       6.231e+00      -1.137e+01       5.464e-01           0.067          -0.032          -0.997       2.537e-02          0.0945
 139       6.135e+00      -1.137e+01       5.397e-01           0.073          -0.029          -0.997       2.828e-02          0.0753
 140       6.031e+00      -1.137e+01       5.317e-01           0.079          -0.026          -0.997       3.043e-02          0.0541
 141       5.921e+00      -1.137e+01       5.226e-01           0.084          -0.023          -0.996       3.175e-02          0.0294
 142       5.807e+00      -1.137e+01       5.129e-01           0.086          -0.021          -0.996       3.220e-02          0.0012
 143       5.693e+00      -1.137e+01       5.032e-01           0.085          -0.020          -0.996       3.176e-02         -0.0266
 144       5.583e+00      -1.138e+01       4.934e-01           0.092          -0.016          -0.996       3.048e-02         -0.0632
 145       5.479e+00      -1.138e+01       4.836e-01           0.095          -0.014          -0.995       2.835e-02         -0.1269
 146       5.383e+00      -1.138e+01       4.749e-01           0.085          -0.017          -0.996       2.542e-02         -0.2210
 147       5.299e+00      -1.138e+01       4.688e-01           0.057          -0.027          -0.998       2.177e-02         -0.3489
 148       5.229e+00      -1.138e+01       4.666e-01          -0.001          -0.051          -0.999       1.755e-02         -0.5258
 149       5.175e+00      -1.138e+01       4.693e-01          -0.116          -0.100          -0.988       1.300e-02         -0.7804
 150       5.138e+00      -1.138e+01       4.776e-01          -0.367          -0.207          -0.907       8.613e-03         -1.0289
 151       5.119e+00      -1.138e+01       4.919e-01          -0.816          -0.386          -0.430       5.957e-03         -0.0141
 152       5.119e+00      -1.137e+01       5.116e-01          -0.850          -0.365           0.380       7.246e-03          0.8107
 153       5.138e+00      -1.137e+01       5.348e-01          -0.632          -0.254           0.732       1.091e-02          0.4527
 154       5.175e+00      -1.137e+01       5.601e-01          -0.481          -0.182           0.858       1.515e-02          0.0808
 155       5.229e+00      -1.137e+01       5.859e-01          -0.374          -0.132           0.918       1.922e-02         -0.1707
 156       5.299e+00      -1.137e+01       6.104e-01          -0.286          -0.093           0.954       2.286e-02         -0.3453
 157       5.383e+00      -1.137e+01       6.316e-01          -0.207          -0.059           0.977       2.597e-02         -0.4599
 158       5.479e+00      -1.137e+01       6.479e-01          -0.132          -0.028           0.991       2.848e-02         -0.5187
 159       5.583e+00      -1.137e+01       6.579e-01          -0.061           0.000           0.998       3.037e-02         -0.5208
 160       5.693e+00      -1.137e+01       6.612e-01          -0.001           0.024           1.000       3.159e-02         -0.4714
 161       5.807e+00      -1.137e+01       6.591e-01           0.039           0.039           0.998       3.205e-02         -0.4058
 162       5.921e+00      -1.137e+01       6.527e-01           0.073           0.051           0.996       3.168e-02         -0.3461
 163       6.031e+00      -1.137e+01       6.429e-01           0.104           0.062           0.993       3.047e-02         -0.2855
 164       6.135e+00      -1.137e+01       6.307e-01           0.130           0.070           0.989       2.844e-02         -0.2234
 165       6.231e+00      -1.137e+01       6.170e-01           0.154           0.078           0.985       2.562e-02         -0.1575
 166       6.315e+00      -1.137e+01       6.031e-01           0.175           0.084           0.981       2.207e-02         -0.0866
 167       6.385e+00      -1.137e+01       5.901e-01           0.192           0.089           0.977       1.789e-02         -0.0100
 168       6.439e+00      -1.137e+01       5.791e-01           0.206           0.092           0.974       1.318e-02          0.0719
 169       6.476e+00      -1.137e+01       5.712e-01           0.215           0.095           0.972       8.074e-03          0.1243
 170       6.495e+00      -1.137e+01       5.661e-01           0.379           0.128           0.916       2.876e-03          0.2376
Strip 5
 171       6.425e+00      -1.105e+01       5.472e-01           0.228           0.001          -0.974       3.652e-03          0.1964
 172       6.405e+00      -1.105e+01       5.453e-01           0.050          -0.039          -0.998       1.058e-02          0.1647
 173       6.366e+00      -1.105e+01       5.433e-01           0.052          -0.038          -0.998       1.731e-02          0.1676
 174       6.309e+00      -1.105e+01       5.403e-01           0.055          -0.037          -0.998       2.357e-02          0.1422
 175       6.235e+00      -1.105e+01       5.361e-01           0.058          -0.035          -0.998       2.920e-02          0.1192
 176       6.147e+00      -1.105e+01       5.307e-01           0.064          -0.033          -0.997       3.403e-02          0.0992
 177       6.047e+00      -1.105e+01       5.239e-01           0.070          -0.030          -0.997       3.794e-02          0.0794
 178       5.937e+00      -1.106e+01       5.159e-01           0.076          -0.027          -0.997       4.082e-02          0.0573
 179       5.820e+00      -1.106e+01       5.068e-01           0.081          -0.024          -0.996       4.259e-02          0.0314
 180       5.701e+00      -1.106e+01       4.970e-01           0.083          -0.022          -0.996       4.319e-02          0.0021
 181       5.581e+00      -1.106e+01       4.871e-01           0.082          -0.021          -0.996       4.260e-02         -0.0263
 182       5.465e+00      -1.106e+01       4.772e-01           0.088          -0.018          -0.996       4.088e-02         -0.0626
 183       5.355e+00      -1.106e+01       4.673e-01           0.092          -0.015          -0.996       3.803e-02         -0.1250
 184       5.254e+00      -1.106e+01       4.585e-01           0.082          -0.018          -0.996       3.409e-02         -0.2164
 185       5.166e+00      -1.106e+01       4.524e-01           0.054          -0.029          -0.998       2.920e-02         -0.3405
 186       5.092e+00      -1.106e+01       4.504e-01          -0.004          -0.053          -0.999       2.355e-02         -0.5110
 187       5.035e+00      -1.106e+01       4.534e-01          -0.120          -0.102          -0.988       1.746e-02         -0.7522
 188       4.996e+00      -1.106e+01       4.623e-01          -0.370          -0.208          -0.906       1.158e-02         -0.9750
 189       4.976e+00      -1.106e+01       4.774e-01          -0.816          -0.386          -0.430       8.009e-03          0.0284
 190       4.976e+00      -1.106e+01       4.981e-01          -0.850          -0.365           0.380       9.706e-03          0.8155
 191       4.996e+00      -1.106e+01       5.226e-01          -0.631          -0.253           0.733       1.461e-02          0.4408
 192       5.035e+00      -1.105e+01       5.491e-01          -0.479          -0.181           0.859       2.028e-02          0.0657
 193       5.092e+00      -1.105e+01       5.760e-01          -0.371          -0.131           0.919       2.574e-02         -0.1874
 194       5.166e+00      -1.105e+01       6.015e-01          -0.283          -0.092           0.955       3.063e-02         -0.3639
 195       5.254e+00      -1.105e+01       6.236e-01          -0.203          -0.058           0.977       3.480e-02         -0.4819
 196       5.355e+00      -1.105e+01       6.404e-01          -0.128          -0.027           0.991       3.819e-02         -0.5448
 197       5.465e+00      -1.105e+01       6.505e-01          -0.058           0.002           0.998       4.074e-02         -0.5504
 198       5.581e+00      -1.105e+01       6.536e-01           0.003           0.025           1.000       4.240e-02         -0.5028
 199       5.701e+00      -1.105e+01       6.509e-01           0.043           0.040           0.998       4.302e-02         -0.4371
 200       5.820e+00      -1.105e+01       6.438e-01           0.077           0.052           0.996       4.253e-02         -0.3757
 201       5.937e+00      -1.105e+01       6.330e-01           0.107           0.063           0.992       4.091e-02         -0.3117
 202       6.047e+00      -1.105e+01       6.198e-01           0.133           0.071           0.989       3.818e-02         -0.2452
 203       6.147e+00      -1.105e+01       6.050e-01           0.158           0.079           0.984       3.440e-02         -0.1743
 204       6.235e+00      -1.105e+01       5.901e-01           0.178           0.084           0.980       2.964e-02         -0.0986
 205       6.309e+00      -1.105e+01       5.761e-01           0.196           0.089           0.977       2.403e-02         -0.0176
 206       6.366e+00      -1.105e+01       5.643e-01           0.209           0.093           0.973       1.770e-02          0.0678
 207       6.405e+00      -1.105e+01       5.558e-01           0.218           0.095           0.971       1.084e-02          0.1232
 208       6.425e+00      -1.105e+01       5.505e-01           0.382           0.129           0.915       3.865e-03          0.2381
Strip 6
 209       6.339e+00      -1.066e+01       5.276e-01           0.225           0.001          -0.974       4.684e-03          0.1941
 210       6.318e+00      -1.066e+01       5.257e-01           0.046          -0.039          -0.998       1.358e-02          0.1642
 211       6.276e+00      -1.066e+01       5.237e-01           0.048          -0.039          -0.998       2.222e-02          0.1681
 212       6.216e+00      -1.066e+01       5.207e-01           0.051          -0.038          -0.998       3.025e-02          0.1435
 213       6.137e+00      -1.066e+01       5.166e-01           0.055          -0.036          -0.998       3.747e-02          0.1210
 214       6.044e+00      -1.066e+01       5.112e-01           0.060          -0.034          -0.998       4.368e-02          0.1012
 215       5.937e+00      -1.066e+01       5.045e-01           0.066          -0.031          -0.997       4.870e-02          0.0816
 216       5.820e+00      -1.066e+01       4.964e-01           0.072          -0.028          -0.997       5.239e-02          0.0596
 217       5.696e+00      -1.066e+01       4.872e-01           0.077          -0.025          -0.997       5.466e-02          0.0338
 218       5.569e+00      -1.066e+01       4.773e-01           0.079          -0.024          -0.997       5.543e-02          0.0050
 219       5.442e+00      -1.066e+01       4.673e-01           0.078          -0.023          -0.997       5.467e-02         -0.0226
 220       5.318e+00      -1.066e+01       4.572e-01           0.085          -0.019          -0.996       5.246e-02         -0.0577
 221       5.202e+00      -1.066e+01       4.471e-01           0.088          -0.017          -0.996       4.880e-02         -0.1182
 222       5.095e+00      -1.066e+01       4.382e-01           0.078          -0.020          -0.997       4.375e-02         -0.2070
 223       5.001e+00      -1.066e+01       4.321e-01           0.050          -0.031          -0.998       3.748e-02         -0.3270
 224       4.923e+00      -1.066e+01       4.302e-01          -0.008          -0.055          -0.998       3.024e-02         -0.4902
 225       4.862e+00      -1.066e+01       4.337e-01          -0.123          -0.103          -0.987       2.243e-02         -0.7166
 226       4.820e+00      -1.066e+01       4.434e-01          -0.372          -0.209          -0.904       1.490e-02         -0.9104
 227       4.799e+00      -1.066e+01       4.595e-01          -0.816          -0.386          -0.430       1.030e-02          0.0777
 228       4.799e+00      -1.066e+01       4.815e-01          -0.850          -0.366           0.379       1.244e-02          0.8153
 229       4.820e+00      -1.066e+01       5.074e-01          -0.630          -0.253           0.734       1.870e-02          0.4200
 230       4.862e+00      -1.066e+01       5.354e-01          -0.477          -0.180           0.861       2.597e-02          0.0430
 231       4.923e+00      -1.066e+01       5.638e-01          -0.368          -0.130           0.921       3.298e-02         -0.2091
 232       5.001e+00      -1.066e+01       5.906e-01          -0.280          -0.091           0.956       3.926e-02         -0.3847
 233       5.095e+00      -1.066e+01       6.136e-01          -0.200          -0.056           0.978       4.463e-02         -0.5019
 234       5.202e+00      -1.066e+01       6.311e-01          -0.125          -0.025           0.992       4.900e-02         -0.5644
 235       5.318e+00      -1.066e+01       6.414e-01          -0.054           0.003           0.999       5.229e-02         -0.5696
 236       5.442e+00      -1.066e+01       6.442e-01           0.007           0.026           1.000       5.443e-02         -0.5213
 237       5.569e+00      -1.066e+01       6.408e-01           0.046           0.041           0.998       5.524e-02         -0.4548
 238       5.696e+00      -1.066e+01       6.327e-01           0.081           0.053           0.995       5.462e-02         -0.3923
 239       5.820e+00      -1.066e+01       6.209e-01           0.111           0.064           0.992       5.255e-02         -0.3267
 240       5.937e+00      -1.066e+01       6.063e-01           0.137           0.072           0.988       4.905e-02         -0.2581
 241       6.044e+00      -1.066e+01       5.902e-01           0.161           0.079           0.984       4.420e-02         -0.1848
 242       6.137e+00      -1.066e+01       5.739e-01           0.182           0.085           0.980       3.809e-02         -0.1066
 243       6.216e+00      -1.066e+01       5.588e-01           0.199           0.090           0.976       3.088e-02         -0.0233
 244       6.276e+00      -1.066e+01       5.461e-01           0.213           0.094           0.973       2.275e-02          0.0640
 245       6.318e+00      -1.066e+01       5.369e-01           0.222           0.096           0.970       1.394e-02          0.1210
 246       6.339e+00      -1.066e+01       5.311e-01           0.385           0.129           0.914       4.970e-03          0.2373
Strip 7
 247       6.237e+00      -1.019e+01       5.044e-01           0.221          -0.000          -0.975       5.834e-03          0.1919
 248       6.214e+00      -1.019e+01       5.024e-01           0.042          -0.040          -0.998       1.692e-02          0.1635
 249       6.170e+00      -1.019e+01       5.005e-01           0.044          -0.040          -0.998       2.770e-02          0.1681
 250       6.105e+00      -1.019e+01       4.976e-01           0.047          -0.038          -0.998       3.771e-02          0.1441
 251       6.021e+00      -1.019e+01       4.935e-01           0.051          -0.037          -0.998       4.671e-02          0.1222
 252       5.921e+00      -1.019e+01       4.881e-01           0.056          -0.035          -0.998       5.444e-02          0.1028
 253       5.807e+00      -1.019e+01       4.814e-01           0.062          -0.032          -0.998       6.070e-02          0.0836
 254       5.682e+00      -1.019e+01       4.733e-01           0.068          -0.029          -0.997       6.530e-02          0.0620
 255       5.549e+00      -1.019e+01       4.639e-01           0.073          -0.027          -0.997       6.813e-02          0.0369
 256       5.413e+00      -1.019e+01       4.539e-01           0.075          -0.025          -0.997       6.909e-02          0.0088
 257       5.277e+00      -1.020e+01       4.438e-01           0.074          -0.024          -0.997       6.814e-02         -0.0178
 258       5.145e+00      -1.020e+01       4.335e-01           0.081          -0.021          -0.997       6.538e-02         -0.0516
 259       5.020e+00      -1.020e+01       4.233e-01           0.084          -0.018          -0.996       6.082e-02         -0.1102
 260       4.906e+00      -1.020e+01       4.142e-01           0.074          -0.021          -0.997       5.453e-02         -0.1964
 261       4.805e+00      -1.020e+01       4.081e-01           0.046          -0.032          -0.998       4.672e-02         -0.3123
 262       4.722e+00      -1.020e+01       4.064e-01          -0.012          -0.056          -0.998       3.771e-02         -0.4682
 263       4.657e+00      -1.020e+01       4.104e-01          -0.127          -0.105          -0.986       2.799e-02         -0.6798
 264       4.612e+00      -1.020e+01       4.209e-01          -0.375          -0.211          -0.903       1.862e-02         -0.8450
 265       4.590e+00      -1.020e+01       4.383e-01          -0.816          -0.386          -0.430       1.288e-02          0.1262
 266       4.590e+00      -1.020e+01       4.618e-01          -0.850          -0.366           0.379       1.547e-02          0.8124
 267       4.612e+00      -1.019e+01       4.894e-01          -0.629          -0.252           0.735       2.324e-02          0.3964
 268       4.657e+00      -1.019e+01       5.191e-01          -0.474          -0.179           0.862       3.230e-02          0.0185
 269       4.722e+00      -1.019e+01       5.493e-01          -0.365          -0.129           0.922       4.103e-02         -0.2317
 270       4.805e+00      -1.019e+01       5.776e-01          -0.276          -0.089           0.957       4.887e-02         -0.4052
 271       4.906e+00      -1.019e+01       6.019e-01          -0.196          -0.055           0.979       5.558e-02         -0.5202
 272       5.020e+00      -1.019e+01       6.200e-01          -0.121          -0.023           0.992       6.105e-02         -0.5808
 273       5.145e+00      -1.019e+01       6.306e-01          -0.050           0.005           0.999       6.518e-02         -0.5843
 274       5.277e+00      -1.019e+01       6.331e-01           0.011           0.028           1.000       6.787e-02         -0.5341
 275       5.413e+00      -1.019e+01       6.289e-01           0.051           0.042           0.998       6.890e-02         -0.4661
 276       5.549e+00      -1.019e+01       6.197e-01           0.085           0.055           0.995       6.814e-02         -0.4023
 277       5.682e+00      -1.019e+01       6.064e-01           0.115           0.065           0.991       6.557e-02         -0.3354
 278       5.807e+00      -1.019e+01       5.903e-01           0.141           0.073           0.987       6.121e-02         -0.2655
 279       5.921e+00      -1.019e+01       5.727e-01           0.165           0.080           0.983       5.516e-02         -0.1908
 280       6.021e+00      -1.019e+01       5.548e-01           0.185           0.086           0.979       4.753e-02         -0.1113
 281       6.105e+00      -1.019e+01       5.383e-01           0.203           0.091           0.975       3.854e-02         -0.0268
 282       6.170e+00      -1.019e+01       5.244e-01           0.217           0.095           0.972       2.840e-02          0.0616
 283       6.214e+00      -1.019e+01       5.144e-01           0.226           0.097           0.969       1.740e-02          0.1195
 284       6.237e+00      -1.019e+01       5.081e-01           0.388           0.130           0.913       6.208e-03          0.2370
Strip 8
 285       6.119e+00      -9.657e+00       4.777e-01           0.217          -0.001          -0.976       7.112e-03          0.1899
 286       6.095e+00      -9.657e+00       4.757e-01           0.038          -0.041          -0.998       2.065e-02          0.1631
 287       6.048e+00      -9.657e+00       4.738e-01           0.040          -0.041          -0.998       3.379e-02          0.1682
 288       5.978e+00      -9.657e+00       4.709e-01           0.042          -0.039          -0.998       4.601e-02          0.1447
 289       5.888e+00      -9.657e+00       4.669e-01           0.046          -0.038          -0.998       5.699e-02          0.1233
 290       5.780e+00      -9.657e+00       4.616e-01           0.052          -0.036          -0.998       6.642e-02          0.1044
 291       5.657e+00      -9.658e+00       4.549e-01           0.058          -0.033          -0.998       7.404e-02          0.0856
 292       5.523e+00      -9.658e+00       4.467e-01           0.064          -0.031          -0.998       7.966e-02          0.0646
 293       5.380e+00      -9.658e+00       4.372e-01           0.069          -0.028          -0.997       8.311e-02          0.0402
 294       5.234e+00      -9.658e+00       4.270e-01           0.071          -0.026          -0.997       8.427e-02          0.0128
 295       5.088e+00      -9.659e+00       4.167e-01           0.070          -0.026          -0.997       8.312e-02         -0.0128
 296       4.946e+00      -9.659e+00       4.063e-01           0.077          -0.022          -0.997       7.975e-02         -0.0454
 297       4.812e+00      -9.660e+00       3.958e-01           0.080          -0.020          -0.997       7.418e-02         -0.1025
 298       4.689e+00      -9.660e+00       3.866e-01           0.070          -0.023          -0.997       6.651e-02         -0.1862
 299       4.581e+00      -9.660e+00       3.804e-01           0.042          -0.034          -0.999       5.700e-02         -0.2982
 300       4.491e+00      -9.660e+00       3.790e-01          -0.016          -0.058          -0.998       4.602e-02         -0.4472
 301       4.421e+00      -9.660e+00       3.836e-01          -0.131          -0.107          -0.986       3.418e-02         -0.6452
 302       4.373e+00      -9.660e+00       3.951e-01          -0.378          -0.212          -0.901       2.277e-02         -0.7843
 303       4.349e+00      -9.659e+00       4.138e-01          -0.816          -0.386          -0.431       1.575e-02          0.1701
 304       4.349e+00      -9.659e+00       4.391e-01          -0.850          -0.366           0.378       1.884e-02          0.8080
 305       4.373e+00      -9.658e+00       4.687e-01          -0.628          -0.252           0.736       2.828e-02          0.3730
 306       4.421e+00      -9.657e+00       5.005e-01          -0.472          -0.177           0.864       3.931e-02         -0.0052
 307       4.491e+00      -9.656e+00       5.326e-01          -0.362          -0.127           0.923       4.996e-02         -0.2532
 308       4.581e+00      -9.655e+00       5.627e-01          -0.273          -0.088           0.958       5.954e-02         -0.4241
 309       4.689e+00      -9.655e+00       5.883e-01          -0.192          -0.053           0.980       6.775e-02         -0.5368
 310       4.812e+00      -9.654e+00       6.074e-01          -0.117          -0.022           0.993       7.444e-02         -0.5951
 311       4.946e+00      -9.654e+00       6.181e-01          -0.046           0.006           0.999       7.951e-02         -0.5962
 312       5.088e+00      -9.653e+00       6.202e-01           0.015           0.029           0.999       8.283e-02         -0.5439
 313       5.234e+00      -9.654e+00       6.151e-01           0.055           0.044           0.998       8.410e-02         -0.4742
 314       5.380e+00      -9.654e+00       6.046e-01           0.089           0.056           0.994       8.319e-02         -0.4090
 315       5.523e+00      -9.654e+00       5.898e-01           0.119           0.066           0.991       8.006e-02         -0.3410
 316       5.657e+00      -9.654e+00       5.720e-01           0.145           0.074           0.987       7.474e-02         -0.2700
 317       5.780e+00      -9.655e+00       5.525e-01           0.169           0.081           0.982       6.736e-02         -0.1944
 318       5.888e+00      -9.655e+00       5.329e-01           0.189           0.087           0.978       5.806e-02         -0.1140
 319       5.978e+00      -9.656e+00       5.147e-01           0.207           0.092           0.974       4.708e-02         -0.0288
 320       6.048e+00      -9.656e+00       4.995e-01           0.220           0.095           0.971       3.469e-02          0.0603
 321       6.095e+00      -9.656e+00       4.885e-01           0.229           0.098           0.968       2.125e-02          0.1188
 322       6.119e+00      -9.657e+00       4.817e-01           0.391           0.130           0.911       7.589e-03          0.2373
Strip 9
 323       5.988e+00      -9.054e+00       4.478e-01           0.213          -0.002          -0.977       8.521e-03          0.1883
 324       5.962e+00      -9.054e+00       4.457e-01           0.034          -0.042          -0.999       2.476e-02          0.1629
 325       5.910e+00      -9.054e+00       4.439e-01           0.036          -0.041          -0.998       4.052e-02          0.1685
 326       5.835e+00      -9.055e+00       4.410e-01           0.039          -0.040          -0.998       5.517e-02          0.1455
 327       5.738e+00      -9.055e+00       4.371e-01           0.043          -0.039          -0.998       6.833e-02          0.1244
 328       5.621e+00      -9.055e+00       4.318e-01           0.048          -0.037          -0.998       7.964e-02          0.1059
 329       5.489e+00      -9.055e+00       4.251e-01           0.054          -0.034          -0.998       8.878e-02          0.0876
 330       5.344e+00      -9.055e+00       4.168e-01           0.060          -0.032          -0.998       9.551e-02          0.0671
 331       5.191e+00      -9.056e+00       4.073e-01           0.065          -0.029          -0.997       9.964e-02          0.0432
 332       5.033e+00      -9.056e+00       3.969e-01           0.067          -0.028          -0.997       1.010e-01          0.0166
 333       4.875e+00      -9.056e+00       3.864e-01           0.066          -0.027          -0.997       9.966e-02         -0.0082
 334       4.722e+00      -9.057e+00       3.758e-01           0.073          -0.024          -0.997       9.561e-02         -0.0399
 335       4.577e+00      -9.057e+00       3.650e-01           0.076          -0.021          -0.997       8.893e-02         -0.0954
 336       4.445e+00      -9.057e+00       3.556e-01           0.066          -0.025          -0.998       7.974e-02         -0.1770
 337       4.329e+00      -9.058e+00       3.494e-01           0.038          -0.036          -0.999       6.835e-02         -0.2855
 338       4.231e+00      -9.058e+00       3.483e-01          -0.020          -0.060          -0.998       5.520e-02         -0.4285
 339       4.156e+00      -9.058e+00       3.535e-01          -0.135          -0.108          -0.985       4.103e-02         -0.6144
 340       4.105e+00      -9.057e+00       3.661e-01          -0.381          -0.213          -0.900       2.737e-02         -0.7308
 341       4.079e+00      -9.057e+00       3.864e-01          -0.816          -0.386          -0.431       1.893e-02          0.2079
 342       4.079e+00      -9.056e+00       4.137e-01          -0.851          -0.366           0.378       2.255e-02          0.8030
 343       4.105e+00      -9.055e+00       4.455e-01          -0.627          -0.251           0.738       3.382e-02          0.3514
 344       4.156e+00      -9.055e+00       4.796e-01          -0.470          -0.176           0.865       4.703e-02         -0.0269
 345       4.231e+00      -9.054e+00       5.139e-01          -0.360          -0.126           0.925       5.980e-02         -0.2724
 346       4.329e+00      -9.053e+00       5.460e-01          -0.269          -0.086           0.959       7.129e-02         -0.4409
 347       4.445e+00      -9.052e+00       5.731e-01          -0.189          -0.052           0.981       8.116e-02         -0.5512
 348       4.577e+00      -9.052e+00       5.931e-01          -0.113          -0.020           0.993       8.922e-02         -0.6071
 349       4.722e+00      -9.051e+00       6.042e-01          -0.042           0.008           0.999       9.534e-02         -0.6059
 350       4.875e+00      -9.051e+00       6.058e-01           0.019           0.031           0.999       9.935e-02         -0.5516
 351       5.033e+00      -9.051e+00       5.997e-01           0.059           0.045           0.997       1.009e-01         -0.4804
 352       5.191e+00      -9.052e+00       5.878e-01           0.093           0.057           0.994       9.982e-02         -0.4139
 353       5.344e+00      -9.052e+00       5.712e-01           0.123           0.067           0.990       9.608e-02         -0.3448
 354       5.489e+00      -9.052e+00       5.514e-01           0.149           0.075           0.986       8.971e-02         -0.2730
 355       5.621e+00      -9.053e+00       5.298e-01           0.173           0.082           0.981       8.086e-02         -0.1967
 356       5.738e+00      -9.053e+00       5.082e-01           0.193           0.088           0.977       6.970e-02         -0.1157
 357       5.835e+00      -9.053e+00       4.883e-01           0.210           0.093           0.973       5.652e-02         -0.0300
 358       5.910e+00      -9.054e+00       4.716e-01           0.224           0.096           0.970       4.165e-02          0.0596
 359       5.962e+00      -9.054e+00       4.595e-01           0.233           0.098           0.968       2.552e-02          0.1186
 360       5.988e+00      -9.054e+00       4.520e-01           0.393           0.131           0.910       9.118e-03          0.2381
Strip 10
 361       5.842e+00      -8.390e+00       4.147e-01           0.210          -0.003          -0.978       1.006e-02          0.1868
 362       5.814e+00      -8.390e+00       4.126e-01           0.031          -0.043          -0.999       2.926e-02          0.1628
 363       5.759e+00      -8.390e+00       4.108e-01           0.032          -0.042          -0.999       4.787e-02          0.1688
 364       5.677e+00      -8.390e+00       4.081e-01           0.035          -0.041          -0.999       6.519e-02          0.1462
 365       5.572e+00      -8.390e+00       4.042e-01           0.039          -0.040          -0.998       8.073e-02          0.1254
 366       5.447e+00      -8.391e+00       3.990e-01           0.044          -0.038          -0.998       9.409e-02          0.1073
 367       5.304e+00      -8.391e+00       3.922e-01           0.050          -0.035          -0.998       1.049e-01          0.0893
 368       5.147e+00      -8.391e+00       3.839e-01           0.056          -0.033          -0.998       1.128e-01          0.0692
 369       4.982e+00      -8.391e+00       3.742e-01           0.061          -0.030          -0.998       1.177e-01          0.0458
 370       4.811e+00      -8.392e+00       3.636e-01           0.063          -0.029          -0.998       1.194e-01          0.0198
 371       4.641e+00      -8.392e+00       3.529e-01           0.062          -0.028          -0.998       1.177e-01         -0.0043
 372       4.475e+00      -8.392e+00       3.421e-01           0.069          -0.025          -0.997       1.129e-01         -0.0351
 373       4.319e+00      -8.393e+00       3.310e-01           0.072          -0.023          -0.997       1.051e-01         -0.0894
 374       4.176e+00      -8.393e+00       3.214e-01           0.062          -0.026          -0.998       9.420e-02         -0.1691
 375       4.050e+00      -8.393e+00       3.152e-01           0.034          -0.037          -0.999       8.075e-02         -0.2747
 376       3.945e+00      -8.393e+00       3.144e-01          -0.024          -0.061          -0.998       6.524e-02         -0.4125
 377       3.864e+00      -8.393e+00       3.203e-01          -0.138          -0.110          -0.984       4.853e-02         -0.5881
 378       3.809e+00      -8.393e+00       3.341e-01          -0.383          -0.214          -0.899       3.240e-02         -0.6857
 379       3.780e+00      -8.392e+00       3.562e-01          -0.816          -0.386          -0.431       2.242e-02          0.2390
 380       3.780e+00      -8.392e+00       3.856e-01          -0.851          -0.366           0.377       2.660e-02          0.7980
 381       3.809e+00      -8.391e+00       4.199e-01          -0.626          -0.250           0.739       3.985e-02          0.3326
 382       3.864e+00      -8.390e+00       4.565e-01          -0.468          -0.175           0.866       5.544e-02         -0.0455
 383       3.945e+00      -8.390e+00       4.932e-01          -0.357          -0.125           0.926       7.053e-02         -0.2890
 384       4.050e+00      -8.389e+00       5.275e-01          -0.266          -0.085           0.960       8.412e-02         -0.4552
 385       4.176e+00      -8.388e+00       5.564e-01          -0.185          -0.050           0.981       9.581e-02         -0.5632
 386       4.319e+00      -8.388e+00       5.774e-01          -0.109          -0.019           0.994       1.054e-01         -0.6170
 387       4.475e+00      -8.387e+00       5.888e-01          -0.038           0.009           0.999       1.126e-01         -0.6138
 388       4.641e+00      -8.387e+00       5.900e-01           0.022           0.032           0.999       1.174e-01         -0.5576
 389       4.811e+00      -8.387e+00       5.827e-01           0.062           0.046           0.997       1.193e-01         -0.4850
 390       4.982e+00      -8.388e+00       5.692e-01           0.096           0.058           0.994       1.180e-01         -0.4175
 391       5.147e+00      -8.388e+00       5.506e-01           0.127           0.068           0.990       1.136e-01         -0.3475
 392       5.304e+00      -8.388e+00       5.286e-01           0.152           0.076           0.985       1.061e-01         -0.2750
 393       5.447e+00      -8.389e+00       5.048e-01           0.176           0.083           0.981       9.564e-02         -0.1981
 394       5.572e+00      -8.389e+00       4.810e-01           0.196           0.089           0.976       8.244e-02         -0.1166
 395       5.677e+00      -8.389e+00       4.591e-01           0.214           0.093           0.972       6.685e-02         -0.0306
 396       5.759e+00      -8.390e+00       4.407e-01           0.227           0.097           0.969       4.927e-02          0.0593
 397       5.814e+00      -8.390e+00       4.275e-01           0.236           0.099           0.967       3.019e-02          0.1186
 398       5.842e+00      -8.390e+00       4.193e-01           0.396           0.131           0.909       1.079e-02          0.2389
Strip 11
 399       5.684e+00      -7.669e+00       3.788e-01           0.207          -0.003          -0.978       1.172e-02          0.1856
 400       5.654e+00      -7.669e+00       3.766e-01           0.027          -0.044          -0.999       3.411e-02          0.1627
 401       5.594e+00      -7.669e+00       3.749e-01           0.029          -0.043          -0.999       5.582e-02          0.1691
 402       5.506e+00      -7.669e+00       3.723e-01           0.031          -0.042          -0.999       7.601e-02          0.1467
 403       5.393e+00      -7.669e+00       3.685e-01           0.035          -0.041          -0.999       9.413e-02          0.1262
 404       5.257e+00      -7.669e+00       3.633e-01           0.040          -0.039          -0.998       1.097e-01          0.1084
 405       5.102e+00      -7.669e+00       3.566e-01           0.047          -0.036          -0.998       1.223e-01          0.0908
 406       4.933e+00      -7.670e+00       3.482e-01           0.053          -0.034          -0.998       1.315e-01          0.0710
 407       4.754e+00      -7.670e+00       3.383e-01           0.058          -0.032          -0.998       1.372e-01          0.0480
 408       4.570e+00      -7.670e+00       3.275e-01           0.060          -0.030          -0.998       1.391e-01          0.0224
 409       4.386e+00      -7.670e+00       3.166e-01           0.058          -0.030          -0.998       1.372e-01         -0.0011
 410       4.208e+00      -7.671e+00       3.055e-01           0.065          -0.026          -0.998       1.317e-01         -0.0312
 411       4.038e+00      -7.671e+00       2.941e-01           0.069          -0.024          -0.997       1.225e-01         -0.0846
 412       3.884e+00      -7.671e+00       2.842e-01           0.059          -0.028          -0.998       1.098e-01         -0.1628
 413       3.748e+00      -7.671e+00       2.780e-01           0.030          -0.039          -0.999       9.415e-02         -0.2659
 414       3.635e+00      -7.671e+00       2.775e-01          -0.028          -0.063          -0.998       7.609e-02         -0.3995
 415       3.547e+00      -7.671e+00       2.843e-01          -0.142          -0.111          -0.984       5.663e-02         -0.5670
 416       3.487e+00      -7.671e+00       2.994e-01          -0.386          -0.215          -0.897       3.786e-02         -0.6496
 417       3.457e+00      -7.671e+00       3.233e-01          -0.815          -0.386          -0.432       2.619e-02          0.2630
 418       3.457e+00      -7.670e+00       3.551e-01          -0.851          -0.366           0.377       3.096e-02          0.7936
 419       3.487e+00      -7.670e+00       3.920e-01          -0.625          -0.250           0.740       4.635e-02          0.3172
 420       3.547e+00      -7.669e+00       4.314e-01          -0.466          -0.175           0.868       6.450e-02         -0.0607
 421       3.635e+00      -7.668e+00       4.708e-01          -0.354          -0.124           0.927       8.210e-02         -0.3023
 422       3.748e+00      -7.668e+00       5.074e-01          -0.263          -0.084           0.961       9.796e-02         -0.4666
 423       3.884e+00      -7.667e+00       5.382e-01          -0.182          -0.049           0.982       1.116e-01         -0.5728
 424       4.038e+00      -7.666e+00       5.604e-01          -0.106          -0.018           0.994       1.228e-01         -0.6247
 425       4.208e+00      -7.666e+00       5.721e-01          -0.034           0.010           0.999       1.313e-01         -0.6197
 426       4.386e+00      -7.666e+00       5.727e-01           0.026           0.033           0.999       1.369e-01         -0.5621
 427       4.570e+00      -7.666e+00       5.642e-01           0.066           0.047           0.997       1.391e-01         -0.4883
 428       4.754e+00      -7.666e+00       5.490e-01           0.100           0.059           0.993       1.377e-01         -0.4199
 429       4.933e+00      -7.667e+00       5.283e-01           0.130           0.069           0.989       1.326e-01         -0.3493
 430       5.102e+00      -7.667e+00       5.040e-01           0.156           0.077           0.985       1.238e-01         -0.2762
 431       5.257e+00      -7.667e+00       4.777e-01           0.180           0.084           0.980       1.116e-01         -0.1989
 432       5.393e+00      -7.668e+00       4.515e-01           0.200           0.090           0.976       9.622e-02         -0.1172
 433       5.506e+00      -7.668e+00       4.274e-01           0.217           0.094           0.972       7.803e-02         -0.0309
 434       5.594e+00      -7.668e+00       4.073e-01           0.230           0.098           0.968       5.751e-02          0.0592
 435       5.654e+00      -7.668e+00       3.928e-01           0.239           0.100           0.966       3.523e-02          0.1188
 436       5.684e+00      -7.669e+00       3.838e-01           0.399           0.132           0.908       1.260e-02          0.2397
Strip 12
 437       5.515e+00      -6.895e+00       3.403e-01           0.204          -0.004          -0.979       1.349e-02          0.1843
 438       5.482e+00      -6.895e+00       3.380e-01           0.024          -0.044          -0.999       3.928e-02          0.1626
 439       5.417e+00      -6.895e+00       3.364e-01           0.025          -0.044          -0.999       6.428e-02          0.1693
 440       5.323e+00      -6.895e+00       3.339e-01           0.028          -0.043          -0.999       8.753e-02          0.1471
 441       5.200e+00      -6.895e+00       3.302e-01           0.032          -0.041          -0.999       1.084e-01          0.1269
 442       5.053e+00      -6.895e+00       3.251e-01           0.037          -0.040          -0.999       1.263e-01          0.1093
 443       4.887e+00      -6.895e+00       3.183e-01           0.043          -0.037          -0.998       1.408e-01          0.0918
 444       4.704e+00      -6.896e+00       3.098e-01           0.049          -0.035          -0.998       1.515e-01          0.0724
 445       4.511e+00      -6.896e+00       2.997e-01           0.054          -0.033          -0.998       1.580e-01          0.0496
 446       4.312e+00      -6.896e+00       2.887e-01           0.057          -0.031          -0.998       1.602e-01          0.0244
 447       4.113e+00      -6.896e+00       2.776e-01           0.055          -0.031          -0.998       1.580e-01          0.0013
 448       3.920e+00      -6.897e+00       2.662e-01           0.062          -0.027          -0.998       1.516e-01         -0.0283
 449       3.738e+00      -6.897e+00       2.546e-01           0.066          -0.026          -0.998       1.410e-01         -0.0809
 450       3.571e+00      -6.897e+00       2.444e-01           0.056          -0.029          -0.998       1.265e-01         -0.1579
 451       3.424e+00      -6.897e+00       2.382e-01           0.027          -0.040          -0.999       1.084e-01         -0.2593
 452       3.302e+00      -6.897e+00       2.380e-01          -0.031          -0.064          -0.997       8.765e-02         -0.3897
 453       3.207e+00      -6.897e+00       2.456e-01          -0.145          -0.113          -0.983       6.528e-02         -0.5510
 454       3.142e+00      -6.897e+00       2.621e-01          -0.388          -0.216          -0.896       4.368e-02         -0.6225
 455       3.109e+00      -6.897e+00       2.881e-01          -0.815          -0.386          -0.432       3.022e-02          0.2803
 456       3.109e+00      -6.896e+00       3.225e-01          -0.851          -0.366           0.376       3.560e-02          0.7902
 457       3.142e+00      -6.896e+00       3.622e-01          -0.624          -0.250           0.741       5.326e-02          0.3058
 458       3.207e+00      -6.895e+00       4.045e-01          -0.464          -0.174           0.869       7.414e-02         -0.0720
 459       3.302e+00      -6.894e+00       4.468e-01          -0.352          -0.123           0.928       9.440e-02         -0.3123
 460       3.424e+00      -6.894e+00       4.859e-01          -0.261          -0.082           0.962       1.127e-01         -0.4750
 461       3.571e+00      -6.893e+00       5.187e-01          -0.179          -0.048           0.983       1.284e-01         -0.5796
 462       3.738e+00      -6.893e+00       5.421e-01          -0.103          -0.016           0.995       1.414e-01         -0.6301
 463       3.920e+00      -6.893e+00       5.541e-01          -0.031           0.012           0.999       1.512e-01         -0.6238
 464       4.113e+00      -6.892e+00       5.542e-01           0.029           0.034           0.999       1.577e-01         -0.5650
 465       4.312e+00      -6.892e+00       5.444e-01           0.069           0.049           0.996       1.603e-01         -0.4904
 466       4.511e+00      -6.893e+00       5.273e-01           0.103           0.060           0.993       1.586e-01         -0.4213
 467       4.704e+00      -6.893e+00       5.044e-01           0.133           0.070           0.989       1.528e-01         -0.3502
 468       4.887e+00      -6.893e+00       4.775e-01           0.159           0.078           0.984       1.427e-01         -0.2768
 469       5.053e+00      -6.893e+00       4.486e-01           0.183           0.085           0.980       1.286e-01         -0.1993
 470       5.200e+00      -6.894e+00       4.198e-01           0.203           0.090           0.975       1.109e-01         -0.1174
 471       5.323e+00      -6.894e+00       3.934e-01           0.220           0.095           0.971       8.995e-02         -0.0309
 472       5.417e+00      -6.894e+00       3.713e-01           0.233           0.098           0.967       6.630e-02          0.0593
 473       5.482e+00      -6.895e+00       3.555e-01           0.242           0.100           0.965       4.062e-02          0.1190
 474       5.515e+00      -6.895e+00       3.457e-01           0.401           0.132           0.907       1.454e-02          0.2404
Strip 13
 475       5.335e+00      -6.074e+00       2.995e-01           0.201          -0.005          -0.980       1.534e-02          0.1833
 476       5.300e+00      -6.074e+00       2.971e-01           0.021          -0.045          -0.999       4.472e-02          0.1625
 477       5.230e+00      -6.074e+00       2.956e-01           0.022          -0.045          -0.999       7.318e-02          0.1693
 478       5.128e+00      -6.074e+00       2.931e-01           0.025          -0.044          -0.999       9.964e-02          0.1474
 479       4.996e+00      -6.074e+00       2.895e-01           0.029          -0.042          -0.999       1.234e-01          0.1273
 480       4.838e+00      -6.074e+00       2.845e-01           0.034          -0.040          -0.999       1.438e-01          0.1098
 481       4.658e+00      -6.074e+00       2.777e-01           0.040          -0.038          -0.998       1.603e-01          0.0926
 482       4.461e+00      -6.074e+00       2.691e-01           0.046          -0.036          -0.998       1.724e-01          0.0732
 483       4.252e+00      -6.075e+00       2.589e-01           0.051          -0.033          -0.998       1.799e-01          0.0507
 484       4.038e+00      -6.075e+00       2.476e-01           0.054          -0.032          -0.998       1.824e-01          0.0257
 485       3.824e+00      -6.075e+00       2.362e-01           0.052          -0.032          -0.998       1.799e-01          0.0029
 486       3.615e+00      -6.075e+00       2.246e-01           0.059          -0.029          -0.998       1.725e-01         -0.0264
 487       3.418e+00      -6.076e+00       2.126e-01           0.063          -0.027          -0.998       1.605e-01         -0.0785
 488       3.238e+00      -6.076e+00       2.021e-01           0.053          -0.030          -0.998       1.439e-01         -0.1548
 489       3.080e+00      -6.076e+00       1.959e-01           0.024          -0.041          -0.999       1.234e-01         -0.2549
 490       2.948e+00      -6.076e+00       1.961e-01          -0.034          -0.065          -0.997       9.981e-02         -0.3831
 491       2.846e+00      -6.076e+00       2.046e-01          -0.148          -0.114          -0.982       7.436e-02         -0.5403
 492       2.776e+00      -6.076e+00       2.226e-01          -0.390          -0.217          -0.895       4.981e-02         -0.6044
 493       2.741e+00      -6.075e+00       2.507e-01          -0.815          -0.386          -0.432       3.446e-02          0.2909
 494       2.741e+00      -6.075e+00       2.878e-01          -0.851          -0.366           0.376       4.046e-02          0.7881
 495       2.776e+00      -6.075e+00       3.305e-01          -0.623          -0.249           0.741       6.051e-02          0.2985
 496       2.846e+00      -6.074e+00       3.760e-01          -0.462          -0.173           0.870       8.425e-02         -0.0794
 497       2.948e+00      -6.073e+00       4.213e-01          -0.350          -0.122           0.929       1.073e-01         -0.3186
 498       3.080e+00      -6.073e+00       4.631e-01          -0.258          -0.081           0.963       1.281e-01         -0.4803
 499       3.238e+00      -6.072e+00       4.979e-01          -0.176          -0.046           0.983       1.461e-01         -0.5839
 500       3.418e+00      -6.072e+00       5.227e-01          -0.100          -0.015           0.995       1.609e-01         -0.6333
 501       3.615e+00      -6.072e+00       5.351e-01          -0.028           0.013           1.000       1.721e-01         -0.6259
 502       3.824e+00      -6.072e+00       5.346e-01           0.032           0.035           0.999       1.796e-01         -0.5663
 503       4.038e+00      -6.072e+00       5.234e-01           0.072           0.049           0.996       1.825e-01         -0.4912
 504       4.252e+00      -6.072e+00       5.043e-01           0.106           0.061           0.993       1.807e-01         -0.4218
 505       4.461e+00      -6.072e+00       4.790e-01           0.136           0.071           0.988       1.740e-01         -0.3504
 506       4.658e+00      -6.072e+00       4.494e-01           0.162           0.079           0.984       1.625e-01         -0.2769
 507       4.838e+00      -6.073e+00       4.177e-01           0.185           0.086           0.979       1.466e-01         -0.1992
 508       4.996e+00      -6.073e+00       3.862e-01           0.205           0.091           0.974       1.264e-01         -0.1172
 509       5.128e+00      -6.073e+00       3.573e-01           0.222           0.095           0.970       1.025e-01         -0.0308
 510       5.230e+00      -6.073e+00       3.332e-01           0.236           0.099           0.967       7.554e-02          0.0594
 511       5.300e+00      -6.074e+00       3.160e-01           0.245           0.101           0.964       4.628e-02          0.1193
 512       5.335e+00      -6.074e+00       3.053e-01           0.403           0.133           0.906       1.657e-02          0.2412
Strip 14
 513       5.147e+00      -5.211e+00       2.566e-01           0.198          -0.005          -0.980       1.726e-02          0.1822
 514       5.109e+00      -5.211e+00       2.541e-01           0.018          -0.046          -0.999       5.034e-02          0.1623
 515       5.033e+00      -5.211e+00       2.527e-01           0.020          -0.045          -0.999       8.238e-02          0.1692
 516       4.923e+00      -5.211e+00       2.503e-01           0.023          -0.044          -0.999       1.122e-01          0.1474
 517       4.781e+00      -5.211e+00       2.468e-01           0.027          -0.043          -0.999       1.389e-01          0.1274
 518       4.611e+00      -5.212e+00       2.418e-01           0.032          -0.041          -0.999       1.619e-01          0.1101
 519       4.417e+00      -5.212e+00       2.351e-01           0.038          -0.039          -0.999       1.804e-01          0.0929
 520       4.205e+00      -5.212e+00       2.264e-01           0.044          -0.036          -0.998       1.941e-01          0.0736
 521       3.981e+00      -5.212e+00       2.159e-01           0.049          -0.034          -0.998       2.024e-01          0.0512
 522       3.750e+00      -5.212e+00       2.044e-01           0.051          -0.033          -0.998       2.053e-01          0.0263
 523       3.519e+00      -5.212e+00       1.928e-01           0.050          -0.033          -0.998       2.025e-01          0.0037
 524       3.295e+00      -5.213e+00       1.808e-01           0.057          -0.030          -0.998       1.942e-01         -0.0255
 525       3.083e+00      -5.213e+00       1.685e-01           0.060          -0.028          -0.998       1.806e-01         -0.0773
 526       2.889e+00      -5.213e+00       1.577e-01           0.050          -0.031          -0.998       1.620e-01         -0.1533
 527       2.719e+00      -5.213e+00       1.514e-01           0.022          -0.042          -0.999       1.389e-01         -0.2527
 528       2.577e+00      -5.213e+00       1.520e-01          -0.036          -0.066          -0.997       1.124e-01         -0.3797
 529       2.467e+00      -5.213e+00       1.615e-01          -0.150          -0.115          -0.982       8.377e-02         -0.5346
 530       2.391e+00      -5.213e+00       1.811e-01          -0.391          -0.218          -0.894       5.616e-02         -0.5949
 531       2.353e+00      -5.213e+00       2.115e-01          -0.815          -0.386          -0.432       3.885e-02          0.2949
 532       2.353e+00      -5.212e+00       2.514e-01          -0.851          -0.366           0.375       4.549e-02          0.7874
 533       2.391e+00      -5.212e+00       2.973e-01          -0.622          -0.249           0.742       6.798e-02          0.2958
 534       2.467e+00      -5.211e+00       3.460e-01          -0.461          -0.172           0.871       9.469e-02         -0.0823
 535       2.577e+00      -5.211e+00       3.945e-01          -0.348          -0.121           0.930       1.206e-01         -0.3212
 536       2.719e+00      -5.211e+00       4.391e-01          -0.256          -0.080           0.963       1.441e-01         -0.4823
 537       2.889e+00      -5.210e+00       4.762e-01          -0.174          -0.045           0.984       1.644e-01         -0.5852
 538       3.083e+00      -5.210e+00       5.023e-01          -0.097          -0.014           0.995       1.810e-01         -0.6340
 539       3.295e+00      -5.210e+00       5.151e-01          -0.026           0.014           1.000       1.938e-01         -0.6262
 540       3.519e+00      -5.210e+00       5.140e-01           0.035           0.036           0.999       2.022e-01         -0.5661
 541       3.750e+00      -5.210e+00       5.013e-01           0.074           0.050           0.996       2.055e-01         -0.4908
 542       3.981e+00      -5.210e+00       4.802e-01           0.108           0.062           0.992       2.035e-01         -0.4213
 543       4.205e+00      -5.210e+00       4.523e-01           0.138           0.072           0.988       1.960e-01         -0.3499
 544       4.417e+00      -5.210e+00       4.199e-01           0.164           0.079           0.983       1.831e-01         -0.2763
 545       4.611e+00      -5.210e+00       3.853e-01           0.188           0.086           0.978       1.651e-01         -0.1987
 546       4.781e+00      -5.211e+00       3.509e-01           0.208           0.092           0.974       1.423e-01         -0.1169
 547       4.923e+00      -5.211e+00       3.194e-01           0.225           0.096           0.970       1.155e-01         -0.0306
 548       5.033e+00      -5.211e+00       2.932e-01           0.238           0.099           0.966       8.511e-02          0.0596
 549       5.109e+00      -5.211e+00       2.744e-01           0.247           0.101           0.964       5.215e-02          0.1195
 550       5.147e+00      -5.211e+00       2.628e-01           0.405           0.133           0.905       1.868e-02          0.2417
Strip 15
 551       4.950e+00      -4.313e+00       2.119e-01           0.196          -0.006          -0.981       1.922e-02          0.1811
 552       4.909e+00      -4.313e+00       2.094e-01           0.016          -0.046          -0.999       5.606e-02          0.1619
 553       4.828e+00      -4.313e+00       2.080e-01           0.017          -0.046          -0.999       9.174e-02          0.1689
 554       4.710e+00      -4.313e+00       2.058e-01           0.020          -0.045          -0.999       1.249e-01          0.1471
 555       4.557e+00      -4.313e+00       2.023e-01           0.024          -0.043          -0.999       1.547e-01          0.1272
 556       4.375e+00      -4.313e+00       1.974e-01           0.029          -0.042          -0.999       1.803e-01          0.1099
 557       4.166e+00      -4.314e+00       1.906e-01           0.035          -0.039          -0.999       2.009e-01          0.0928
 558       3.939e+00      -4.314e+00       1.819e-01           0.041          -0.037          -0.998       2.161e-01          0.0735
 559       3.698e+00      -4.314e+00       1.712e-01           0.046          -0.035          -0.998       2.254e-01          0.0511
 560       3.450e+00      -4.314e+00       1.594e-01           0.049          -0.034          -0.998       2.286e-01          0.0262
 561       3.202e+00      -4.314e+00       1.475e-01           0.047          -0.034          -0.998       2.254e-01          0.0036
 562       2.961e+00      -4.314e+00       1.353e-01           0.054          -0.030          -0.998       2.163e-01         -0.0256
 563       2.734e+00      -4.314e+00       1.225e-01           0.058          -0.029          -0.998       2.011e-01         -0.0775
 564       2.526e+00      -4.315e+00       1.115e-01           0.048          -0.032          -0.998       1.804e-01         -0.1533
 565       2.343e+00      -4.315e+00       1.052e-01           0.019          -0.043          -0.999       1.547e-01         -0.2527
 566       2.190e+00      -4.315e+00       1.062e-01          -0.039          -0.068          -0.997       1.252e-01         -0.3796
 567       2.072e+00      -4.315e+00       1.166e-01          -0.152          -0.116          -0.982       9.335e-02         -0.5342
 568       1.991e+00      -4.315e+00       1.378e-01          -0.393          -0.218          -0.893       6.263e-02         -0.5944
 569       1.950e+00      -4.314e+00       1.706e-01          -0.815          -0.386          -0.432       4.332e-02          0.2922
 570       1.950e+00      -4.314e+00       2.134e-01          -0.852          -0.366           0.375       5.060e-02          0.7883
 571       1.991e+00      -4.314e+00       2.626e-01          -0.622          -0.248           0.743       7.558e-02          0.2978
 572       2.072e+00      -4.313e+00       3.148e-01          -0.459          -0.172           0.872       1.053e-01         -0.0807
 573       2.190e+00      -4.313e+00       3.665e-01          -0.346          -0.120           0.931       1.342e-01         -0.3197
 574       2.343e+00      -4.313e+00       4.142e-01          -0.254          -0.079           0.964       1.604e-01         -0.4808
[...]
1313       6.439e+00       1.137e+01       5.592e-01           0.055           0.037          -0.998       1.290e-02          0.1642
1314       6.385e+00       1.137e+01       5.561e-01           0.058           0.036          -0.998       1.757e-02          0.1377
1315       6.315e+00       1.137e+01       5.518e-01           0.062           0.034          -0.997       2.176e-02          0.1143
1316       6.231e+00       1.137e+01       5.464e-01           0.067           0.032          -0.997       2.537e-02          0.0945
1317       6.135e+00       1.137e+01       5.397e-01           0.073           0.029          -0.997       2.828e-02          0.0753
1318       6.031e+00       1.137e+01       5.317e-01           0.079           0.026          -0.997       3.043e-02          0.0541
1319       5.921e+00       1.137e+01       5.226e-01           0.084           0.023          -0.996       3.175e-02          0.0294
1320       5.807e+00       1.137e+01       5.129e-01           0.086           0.021          -0.996       3.220e-02          0.0012
1321       5.693e+00       1.137e+01       5.032e-01           0.085           0.020          -0.996       3.176e-02         -0.0266
1322       5.583e+00       1.138e+01       4.934e-01           0.092           0.016          -0.996       3.048e-02         -0.0632
1323       5.479e+00       1.138e+01       4.836e-01           0.095           0.014          -0.995       2.835e-02         -0.1269
1324       5.383e+00       1.138e+01       4.749e-01           0.085           0.017          -0.996       2.542e-02         -0.2210
1325       5.299e+00       1.138e+01       4.688e-01           0.057           0.027          -0.998       2.177e-02         -0.3489
1326       5.229e+00       1.138e+01       4.666e-01          -0.001           0.051          -0.999       1.755e-02         -0.5258
1327       5.175e+00       1.138e+01       4.693e-01          -0.116           0.100          -0.988       1.300e-02         -0.7804
1328       5.138e+00       1.138e+01       4.776e-01          -0.367           0.207          -0.907       8.613e-03         -1.0289
1329       5.119e+00       1.138e+01       4.919e-01          -0.816           0.386          -0.430       5.957e-03         -0.0141
1330       5.119e+00       1.137e+01       5.116e-01          -0.850           0.365           0.380       7.246e-03          0.8107
1331       5.138e+00       1.137e+01       5.348e-01          -0.632           0.254           0.732       1.091e-02          0.4527
1332       5.175e+00       1.137e+01       5.601e-01          -0.481           0.182           0.858       1.515e-02          0.0808
1333       5.229e+00       1.137e+01       5.859e-01          -0.374           0.132           0.918       1.922e-02         -0.1707
1334       5.299e+00       1.137e+01       6.104e-01          -0.286           0.093           0.954       2.286e-02         -0.3453
1335       5.383e+00       1.137e+01       6.316e-01          -0.207           0.059           0.977       2.597e-02         -0.4599
1336       5.479e+00       1.137e+01       6.479e-01          -0.132           0.028           0.991       2.848e-02         -0.5187
1337       5.583e+00       1.137e+01       6.579e-01          -0.061          -0.000           0.998       3.037e-02         -0.5208
1338       5.693e+00       1.137e+01       6.612e-01          -0.001          -0.024           1.000       3.159e-02         -0.4714
1339       5.807e+00       1.137e+01       6.591e-01           0.039          -0.039           0.998       3.205e-02         -0.4058
1340       5.921e+00       1.137e+01       6.527e-01           0.073          -0.051           0.996       3.168e-02         -0.3461
1341       6.031e+00       1.137e+01       6.429e-01           0.104          -0.062           0.993       3.047e-02         -0.2855
1342       6.135e+00       1.137e+01       6.307e-01           0.130          -0.070           0.989       2.844e-02         -0.2234
1343       6.231e+00       1.137e+01       6.170e-01           0.154          -0.078           0.985       2.562e-02         -0.1575
1344       6.315e+00       1.137e+01       6.031e-01           0.175          -0.084           0.981       2.207e-02         -0.0866
1345       6.385e+00       1.137e+01       5.901e-01           0.192          -0.089           0.977       1.789e-02         -0.0100
1346       6.439e+00       1.137e+01       5.791e-01           0.206          -0.092           0.974       1.318e-02          0.0719
1347       6.476e+00       1.137e+01       5.712e-01           0.215          -0.095           0.972       8.074e-03          0.1243
1348       6.495e+00       1.137e+01       5.661e-01           0.379          -0.128           0.916       2.876e-03          0.2376
Strip 36
1349       6.547e+00       1.161e+01       5.750e-01           0.234          -0.003          -0.972       1.882e-03          0.1886
1350       6.529e+00       1.161e+01       5.732e-01           0.057           0.037          -0.998       5.443e-03          0.1528
1351       6.494e+00       1.161e+01       5.711e-01           0.058           0.036          -0.998       8.907e-03          0.1520
1352       6.442e+00       1.161e+01       5.680e-01           0.061           0.035          -0.998       1.213e-02          0.1242
1353       6.375e+00       1.161e+01       5.638e-01           0.065           0.033          -0.997       1.502e-02          0.1006
1354       6.294e+00       1.161e+01       5.583e-01           0.070           0.031          -0.997       1.751e-02          0.0818
1355       6.203e+00       1.161e+01       5.516e-01           0.076           0.028          -0.997       1.953e-02          0.0645
1356       6.102e+00       1.161e+01       5.436e-01           0.082           0.025          -0.996       2.101e-02          0.0460
1357       5.996e+00       1.161e+01       5.346e-01           0.087           0.022          -0.996       2.192e-02          0.0246
1358       5.887e+00       1.162e+01       5.250e-01           0.089           0.020          -0.996       2.223e-02          0.0005
1359       5.778e+00       1.162e+01       5.153e-01           0.088           0.019          -0.996       2.193e-02         -0.0227
1360       5.672e+00       1.162e+01       5.056e-01           0.095           0.015          -0.995       2.105e-02         -0.0551
1361       5.572e+00       1.162e+01       4.959e-01           0.098           0.013          -0.995       1.958e-02         -0.1164
1362       5.481e+00       1.162e+01       4.873e-01           0.088           0.016          -0.996       1.755e-02         -0.2111
1363       5.400e+00       1.162e+01       4.812e-01           0.060           0.026          -0.998       1.503e-02         -0.3423
1364       5.333e+00       1.162e+01       4.789e-01           0.002           0.050          -0.999       1.211e-02         -0.5244
1365       5.281e+00       1.162e+01       4.814e-01          -0.113           0.099          -0.989       8.968e-03         -0.7886
1366       5.245e+00       1.162e+01       4.892e-01          -0.365           0.206          -0.908       5.935e-03         -1.0531
1367       5.227e+00       1.162e+01       5.029e-01          -0.816           0.386          -0.429       4.105e-03         -0.0373
1368       5.227e+00       1.162e+01       5.217e-01          -0.850           0.365           0.381       5.009e-03          0.7925
1369       5.245e+00       1.161e+01       5.441e-01          -0.633           0.254           0.731       7.548e-03          0.4396
1370       5.281e+00       1.161e+01       5.685e-01          -0.482           0.182           0.857       1.048e-02          0.0736
1371       5.333e+00       1.161e+01       5.934e-01          -0.376           0.133           0.917       1.329e-02         -0.1694
1372       5.400e+00       1.161e+01       6.171e-01          -0.288           0.094           0.953       1.580e-02         -0.3313
1373       5.481e+00       1.161e+01       6.377e-01          -0.209           0.060           0.976       1.794e-02         -0.4299
1374       5.572e+00       1.161e+01       6.536e-01          -0.135           0.029           0.990       1.967e-02         -0.4737
1375       5.672e+00       1.161e+01       6.635e-01          -0.064           0.001           0.998       2.097e-02         -0.4662
1376       5.778e+00       1.161e+01       6.670e-01          -0.004          -0.023           1.000       2.181e-02         -0.4142
1377       5.887e+00       1.161e+01       6.652e-01           0.036          -0.038           0.999       2.212e-02         -0.3513
1378       5.996e+00       1.161e+01       6.594e-01           0.070          -0.050           0.996       2.186e-02         -0.2974
1379       6.102e+00       1.161e+01       6.503e-01           0.101          -0.061           0.993       2.102e-02         -0.2448
1380       6.203e+00       1.161e+01       6.389e-01           0.127          -0.069           0.989       1.962e-02         -0.1920
1381       6.294e+00       1.161e+01       6.261e-01           0.152          -0.077           0.985       1.767e-02         -0.1357
1382       6.375e+00       1.161e+01       6.129e-01           0.172          -0.083           0.982       1.522e-02         -0.0740
1383       6.442e+00       1.161e+01       6.007e-01           0.190          -0.088           0.978       1.234e-02         -0.0053
1384       6.494e+00       1.161e+01       5.903e-01           0.203          -0.092           0.975       9.092e-03          0.0704
1385       6.529e+00       1.161e+01       5.828e-01           0.213          -0.094           0.973       5.569e-03          0.1179
1386       6.547e+00       1.161e+01       5.780e-01           0.377          -0.128           0.917       1.982e-03          0.2297
Strip 37
1387       6.583e+00       1.177e+01       5.831e-01           0.236          -0.003          -0.972       1.103e-03          0.1577
1388       6.565e+00       1.177e+01       5.812e-01           0.059           0.037          -0.998       3.189e-03          0.1201
1389       6.531e+00       1.177e+01       5.792e-01           0.060           0.036          -0.998       5.218e-03          0.1178
1390       6.480e+00       1.177e+01       5.760e-01           0.063           0.035          -0.997       7.107e-03          0.0912
1391       6.415e+00       1.177e+01       5.718e-01           0.067           0.033          -0.997       8.803e-03          0.0712
1392       6.337e+00       1.178e+01       5.663e-01           0.072           0.030          -0.997       1.026e-02          0.0562
1393       6.248e+00       1.178e+01       5.596e-01           0.078           0.027          -0.997       1.144e-02          0.0428
1394       6.150e+00       1.178e+01       5.516e-01           0.084           0.024          -0.996       1.231e-02          0.0283
1395       6.047e+00       1.178e+01       5.427e-01           0.089           0.021          -0.996       1.285e-02          0.0115
1396       5.941e+00       1.178e+01       5.331e-01           0.091           0.019          -0.996       1.303e-02         -0.0071
1397       5.835e+00       1.178e+01       5.234e-01           0.090           0.018          -0.996       1.285e-02         -0.0229
1398       5.732e+00       1.178e+01       5.138e-01           0.097           0.014          -0.995       1.233e-02         -0.0447
1399       5.635e+00       1.178e+01       5.041e-01           0.100           0.012          -0.995       1.147e-02         -0.0922
1400       5.546e+00       1.178e+01       4.956e-01           0.090           0.015          -0.996       1.028e-02         -0.1724
1401       5.468e+00       1.178e+01       4.895e-01           0.062           0.025          -0.998       8.804e-03         -0.2942
1402       5.402e+00       1.178e+01       4.871e-01           0.004           0.049          -0.999       7.095e-03         -0.4759
1403       5.352e+00       1.178e+01       4.894e-01          -0.111           0.098          -0.989       5.251e-03         -0.7470
1404       5.317e+00       1.178e+01       4.970e-01          -0.364           0.206          -0.909       3.473e-03         -1.0163
1405       5.300e+00       1.178e+01       5.103e-01          -0.817           0.386          -0.429       2.402e-03         -0.0354
1406       5.300e+00       1.178e+01       5.286e-01          -0.849           0.365           0.381       2.937e-03          0.7137
1407       5.317e+00       1.178e+01       5.504e-01          -0.634           0.254           0.730       4.428e-03          0.3427
1408       5.352e+00       1.177e+01       5.741e-01          -0.484           0.183           0.856       6.145e-03          0.0024
1409       5.402e+00       1.177e+01       5.984e-01          -0.377           0.134           0.916       7.791e-03         -0.1974
1410       5.468e+00       1.177e+01       6.216e-01          -0.290           0.095           0.952       9.262e-03         -0.3107
1411       5.546e+00       1.177e+01       6.418e-01          -0.211           0.061           0.976       1.051e-02         -0.3696
1412       5.635e+00       1.177e+01       6.574e-01          -0.137           0.030           0.990       1.153e-02         -0.3898
1413       5.732e+00       1.177e+01       6.672e-01          -0.066           0.001           0.998       1.229e-02         -0.3747
1414       5.835e+00       1.177e+01       6.709e-01          -0.006          -0.022           1.000       1.277e-02         -0.3278
1415       5.941e+00       1.177e+01       6.694e-01           0.034          -0.037           0.999       1.296e-02         -0.2759
1416       6.047e+00       1.177e+01       6.639e-01           0.068          -0.049           0.996       1.280e-02         -0.2348
1417       6.150e+00       1.177e+01       6.553e-01           0.099          -0.060           0.993       1.231e-02         -0.1964
1418       6.248e+00       1.177e+01       6.444e-01           0.125          -0.069           0.990       1.149e-02         -0.1589
1419       6.337e+00       1.177e+01       6.321e-01           0.150          -0.076           0.986       1.035e-02         -0.1196
1420       6.415e+00       1.177e+01       6.195e-01           0.170          -0.083           0.982       8.914e-03         -0.0760
1421       6.480e+00       1.177e+01       6.077e-01           0.188          -0.087           0.978       7.225e-03         -0.0247
1422       6.531e+00       1.177e+01       5.978e-01           0.201          -0.091           0.975       5.323e-03          0.0375
1423       6.565e+00       1.177e+01       5.905e-01           0.211          -0.094           0.973       3.260e-03          0.0756
1424       6.583e+00       1.177e+01       5.859e-01           0.375          -0.127           0.918       1.160e-03          0.1877
Strip 38
1425       6.600e+00       1.186e+01       5.871e-01           0.237          -0.004          -0.971       3.633e-04          0.0893
1426       6.583e+00       1.186e+01       5.853e-01           0.060           0.036          -0.998       1.050e-03          0.0493
1427       6.549e+00       1.186e+01       5.832e-01           0.061           0.036          -0.997       1.718e-03          0.0494
1428       6.499e+00       1.186e+01       5.800e-01           0.064           0.034          -0.997       2.340e-03          0.0328
1429       6.435e+00       1.186e+01       5.758e-01           0.068           0.032          -0.997       2.898e-03          0.0232
1430       6.358e+00       1.186e+01       5.703e-01           0.073           0.030          -0.997       3.378e-03          0.0167
1431       6.270e+00       1.186e+01       5.636e-01           0.079           0.027          -0.996       3.767e-03          0.0105
1432       6.174e+00       1.186e+01       5.556e-01           0.085           0.024          -0.996       4.054e-03          0.0028
1433       6.073e+00       1.186e+01       5.467e-01           0.090           0.021          -0.996       4.230e-03         -0.0071
1434       5.968e+00       1.186e+01       5.371e-01           0.092           0.019          -0.996       4.290e-03         -0.0195
1435       5.864e+00       1.186e+01       5.275e-01           0.091           0.018          -0.996       4.231e-03         -0.0299
1436       5.762e+00       1.186e+01       5.179e-01           0.098           0.014          -0.995       4.060e-03         -0.0433
1437       5.666e+00       1.186e+01       5.083e-01           0.101           0.011          -0.995       3.777e-03         -0.0746
1438       5.579e+00       1.186e+01       4.998e-01           0.091           0.014          -0.996       3.386e-03         -0.1287
1439       5.502e+00       1.186e+01       4.937e-01           0.063           0.025          -0.998       2.899e-03         -0.2134
1440       5.437e+00       1.186e+01       4.913e-01           0.005           0.049          -0.999       2.336e-03         -0.3505
1441       5.387e+00       1.186e+01       4.935e-01          -0.110           0.098          -0.989       1.728e-03         -0.5796
1442       5.353e+00       1.186e+01       5.009e-01          -0.363           0.205          -0.909       1.143e-03         -0.8265
1443       5.336e+00       1.186e+01       5.139e-01          -0.817           0.386          -0.429       7.903e-04          0.0703
1444       5.336e+00       1.186e+01       5.320e-01          -0.849           0.365           0.381       9.677e-04          0.6242
1445       5.353e+00       1.186e+01       5.535e-01          -0.634           0.255           0.730       1.459e-03          0.2110
1446       5.387e+00       1.186e+01       5.769e-01          -0.484           0.183           0.856       2.024e-03         -0.0587
1447       5.437e+00       1.185e+01       6.009e-01          -0.378           0.134           0.916       2.567e-03         -0.1869
1448       5.502e+00       1.185e+01       6.238e-01          -0.291           0.095           0.952       3.051e-03         -0.2523
1449       5.579e+00       1.185e+01       6.438e-01          -0.212           0.061           0.975       3.463e-03         -0.2851
1450       5.666e+00       1.185e+01       6.593e-01          -0.138           0.030           0.990       3.796e-03         -0.2946
1451       5.762e+00       1.185e+01       6.691e-01          -0.067           0.002           0.998       4.045e-03         -0.2812
1452       5.864e+00       1.185e+01       6.728e-01          -0.007          -0.021           1.000       4.206e-03         -0.2459
1453       5.968e+00       1.185e+01       6.714e-01           0.033          -0.037           0.999       4.265e-03         -0.2075
1454       6.073e+00       1.185e+01       6.662e-01           0.067          -0.049           0.997       4.215e-03         -0.1771
1455       6.174e+00       1.185e+01       6.578e-01           0.098          -0.060           0.993       4.053e-03         -0.1479
1456       6.270e+00       1.185e+01       6.472e-01           0.124          -0.068           0.990       3.781e-03         -0.1193
1457       6.358e+00       1.185e+01       6.352e-01           0.148          -0.076           0.986       3.406e-03         -0.0902
1458       6.435e+00       1.185e+01       6.229e-01           0.169          -0.082           0.982       2.934e-03         -0.0605
1459       6.499e+00       1.185e+01       6.113e-01           0.187          -0.087           0.979       2.378e-03         -0.0291
1460       6.549e+00       1.185e+01       6.015e-01           0.200          -0.091           0.975       1.752e-03          0.0071
1461       6.583e+00       1.185e+01       5.944e-01           0.210          -0.093           0.973       1.073e-03          0.0161
1462       6.600e+00       1.186e+01       5.899e-01           0.374          -0.127           0.919       3.818e-04          0.1160










